*SPEF "IEEE 1481-1998"
*DESIGN "IIR_Filter"
*DATE "Fri Oct 30 09:12:06 2020"
*VENDOR "Cadence Design Systems, Inc."
*PROGRAM "Innovus"
*VERSION "17.11-s080_1"
*DESIGN_FLOW "COUPLING C" "PIN_CAP NONE" "NAME_SCOPE LOCAL"
*DIVIDER /
*DELIMITER :
*BUS_DELIMITER []
*T_UNIT 1 NS
*C_UNIT 1 PF
*R_UNIT 1 OHM
*L_UNIT 1 HENRY

// MMMC spef file for corner 'my_rc'

*NAME_MAP

*1 CLK
*2 RST_n
*3 VIN
*4 DIN[8]
*5 DIN[7]
*6 DIN[6]
*7 DIN[5]
*8 DIN[4]
*9 DIN[3]
*10 DIN[2]
*11 DIN[1]
*12 DIN[0]
*13 A1[8]
*14 A1[7]
*15 A1[6]
*16 A1[5]
*17 A1[4]
*18 A1[3]
*19 A1[2]
*20 A1[1]
*21 A1[0]
*22 A2[8]
*23 A2[7]
*24 A2[6]
*25 A2[5]
*26 A2[4]
*27 A2[3]
*28 A2[2]
*29 A2[1]
*30 A2[0]
*31 B0[8]
*32 B0[7]
*33 B0[6]
*34 B0[5]
*35 B0[4]
*36 B0[3]
*37 B0[2]
*38 B0[1]
*39 B0[0]
*40 B1[8]
*41 B1[7]
*42 B1[6]
*43 B1[5]
*44 B1[4]
*45 B1[3]
*46 B1[2]
*47 B1[1]
*48 B1[0]
*49 B2[8]
*50 B2[7]
*51 B2[6]
*52 B2[5]
*53 B2[4]
*54 B2[3]
*55 B2[2]
*56 B2[1]
*57 B2[0]
*58 VOUT
*59 DOUT[8]
*60 DOUT[7]
*61 DOUT[6]
*62 DOUT[5]
*63 DOUT[4]
*64 DOUT[3]
*65 DOUT[2]
*66 DOUT[1]
*67 DOUT[0]
*68 FE_OFN19_mult_53_n307
*69 FE_OFN18_mult_51_n304
*70 FE_OFN17_mult_53_n304
*71 FE_OFN16_mult_51_n307
*72 FE_OFN15_mult_45_n304
*73 FE_OFN14_mult_47_n304
*74 FE_OFN13_mult_47_n307
*75 FE_OFN12_mult_45_n307
*76 FE_OFN11_sw_10
*77 FE_OFN10_sw_12
*78 FE_OFN9_sw_1
*79 FE_OFN8_sw_14
*80 FE_OFN7_sw_3
*81 FE_OFN6_sw_16
*82 FE_OFN5_sw_17
*83 FE_OFN4_mult_58_n299
*84 FE_OFN3_sw_5
*85 FE_OFN2_sw_7
*86 FE_OFN1_mult_58_n302
*87 FE_OFN0_sw_8
*88 FE_DBTN11_w_7
*89 FE_DBTN10_w_5
*90 FE_DBTN9_w_3
*91 FE_DBTN8_w_0
*92 FE_DBTN7_sw_0
*93 FE_DBTN6_sw_3
*94 FE_DBTN5_sw_5
*95 FE_DBTN4_sw_7
*96 FE_DBTN3_sw_9
*97 FE_DBTN2_sw_12
*98 FE_DBTN1_sw_14
*99 FE_DBTN0_sw_16
*100 fb_ext_0__16_
*101 fb_ext_0__15_
*102 fb_ext_0__14_
*103 fb_ext_0__13_
*104 fb_ext_0__12_
*105 fb_ext_0__11_
*106 fb_ext_0__10_
*107 fb_ext_0__9_
*108 fb_ext_0__8_
*109 fb_ext_1__16_
*110 fb_ext_1__15_
*111 fb_ext_1__14_
*112 fb_ext_1__13_
*113 fb_ext_1__12_
*114 fb_ext_1__11_
*115 fb_ext_1__10_
*116 fb_ext_1__9_
*117 fb_ext_1__8_
*118 ff_ext_0__16_
*119 ff_ext_0__15_
*120 ff_ext_0__14_
*121 ff_ext_0__13_
*122 ff_ext_0__12_
*123 ff_ext_0__11_
*124 ff_ext_0__10_
*125 ff_ext_0__9_
*126 ff_ext_0__8_
*127 ff_ext_1__16_
*128 ff_ext_1__15_
*129 ff_ext_1__14_
*130 ff_ext_1__13_
*131 ff_ext_1__12_
*132 ff_ext_1__11_
*133 ff_ext_1__10_
*134 ff_ext_1__9_
*135 ff_ext_1__8_
*136 n2
*137 n4
*138 n6
*139 n8
*140 n10
*141 n12
*142 n14
*143 n16
*144 n18
*145 n30
*146 n31
*147 n32
*148 n33
*149 n34
*150 n35
*151 n36
*152 n37
*153 n38
*154 n39
*155 n40
*156 n41
*157 n42
*158 n43
*159 n44
*160 n45
*161 n46
*162 n47
*163 psum_f_8_
*164 psum_f_7_
*165 psum_f_6_
*166 psum_f_5_
*167 psum_f_4_
*168 psum_f_3_
*169 psum_f_2_
*170 psum_f_1_
*171 psum_f_0_
*172 psum_b_8_
*173 psum_b_7_
*174 psum_b_6_
*175 psum_b_5_
*176 psum_b_4_
*177 psum_b_3_
*178 psum_b_2_
*179 psum_b_1_
*180 psum_b_0_
*181 n48
*182 n49
*183 n50
*184 n51
*185 n52
*186 n53
*187 n54
*188 n55
*189 n56
*190 n57
*191 n58
*192 n59
*193 n66
*194 n68
*195 n70
*196 n72
*197 n73
*198 add_1_root_add_0_root_add_60_n2
*199 add_0_root_add_0_root_add_60_n1
*200 mult_58_n362
*201 mult_58_n361
*202 mult_58_n360
*203 mult_58_n359
*204 mult_58_n358
*205 mult_58_n357
*206 mult_58_n356
*207 mult_58_n355
*208 mult_58_n354
*209 mult_58_n353
*210 mult_58_n352
*211 mult_58_n351
*212 mult_58_n350
*213 mult_58_n349
*214 mult_58_n348
*215 mult_58_n347
*216 mult_58_n346
*217 mult_58_n345
*218 mult_58_n344
*219 mult_58_n343
*220 mult_58_n342
*221 mult_58_n341
*222 mult_58_n340
*223 mult_58_n339
*224 mult_58_n338
*225 mult_58_n337
*226 mult_58_n336
*227 mult_58_n335
*228 mult_58_n334
*229 mult_58_n333
*230 mult_58_n332
*231 mult_58_n331
*232 mult_58_n330
*233 mult_58_n329
*234 mult_58_n328
*235 mult_58_n327
*236 mult_58_n326
*237 mult_58_n325
*238 mult_58_n324
*239 mult_58_n323
*240 mult_58_n322
*241 mult_58_n321
*242 mult_58_n320
*243 mult_58_n319
*244 mult_58_n318
*245 mult_58_n317
*246 mult_58_n316
*247 mult_58_n315
*248 mult_58_n314
*249 mult_58_n313
*250 mult_58_n312
*251 mult_58_n311
*252 mult_58_n310
*253 mult_58_n309
*254 mult_58_n308
*255 mult_58_n307
*256 mult_58_n306
*257 mult_58_n305
*258 mult_58_n304
*259 mult_58_n303
*260 mult_58_n302
*261 mult_58_n301
*262 mult_58_n300
*263 mult_58_n299
*264 mult_58_n298
*265 mult_58_n297
*266 mult_58_n296
*267 mult_58_n295
*268 mult_58_n294
*269 mult_58_n293
*270 mult_58_n292
*271 mult_58_n291
*272 mult_58_n290
*273 mult_58_n288
*274 mult_58_n287
*275 mult_58_n285
*276 mult_58_n284
*277 mult_58_n283
*278 mult_58_n282
*279 mult_58_n280
*280 mult_58_n279
*281 mult_58_n278
*282 mult_58_n277
*283 mult_58_n275
*284 mult_58_n274
*285 mult_58_n273
*286 mult_58_n272
*287 mult_58_n271
*288 mult_58_n270
*289 mult_58_n269
*290 mult_58_n268
*291 mult_58_n140
*292 mult_58_n139
*293 mult_58_n138
*294 mult_58_n137
*295 mult_58_n136
*296 mult_58_n135
*297 mult_58_n132
*298 mult_58_n131
*299 mult_58_n130
*300 mult_58_n129
*301 mult_58_n128
*302 mult_58_n127
*303 mult_58_n126
*304 mult_58_n124
*305 mult_58_n123
*306 mult_58_n122
*307 mult_58_n121
*308 mult_58_n120
*309 mult_58_n119
*310 mult_58_n118
*311 mult_58_n117
*312 mult_58_n115
*313 mult_58_n114
*314 mult_58_n113
*315 mult_58_n111
*316 mult_58_n110
*317 mult_58_n109
*318 mult_58_n108
*319 mult_58_n106
*320 mult_58_n104
*321 mult_58_n103
*322 mult_58_n102
*323 mult_58_n101
*324 mult_58_n100
*325 mult_58_n99
*326 mult_58_n95
*327 mult_58_n94
*328 mult_58_n93
*329 mult_58_n79
*330 mult_58_n78
*331 mult_58_n77
*332 mult_58_n76
*333 mult_58_n75
*334 mult_58_n74
*335 mult_58_n73
*336 mult_58_n72
*337 mult_58_n71
*338 mult_58_n70
*339 mult_58_n69
*340 mult_58_n68
*341 mult_58_n67
*342 mult_58_n66
*343 mult_58_n65
*344 mult_58_n64
*345 mult_58_n63
*346 mult_58_n62
*347 mult_58_n61
*348 mult_58_n60
*349 mult_58_n59
*350 mult_58_n58
*351 mult_58_n57
*352 mult_58_n56
*353 mult_58_n55
*354 mult_58_n54
*355 mult_58_n53
*356 mult_58_n52
*357 mult_58_n51
*358 mult_58_n50
*359 mult_58_n49
*360 mult_58_n48
*361 mult_58_n46
*362 mult_58_n45
*363 mult_58_n44
*364 mult_58_n43
*365 mult_58_n42
*366 mult_58_n41
*367 mult_58_n40
*368 mult_58_n39
*369 mult_58_n38
*370 mult_58_n37
*371 mult_58_n36
*372 mult_58_n35
*373 mult_58_n34
*374 mult_58_n32
*375 mult_58_n31
*376 mult_58_n30
*377 mult_58_n29
*378 mult_58_n28
*379 mult_58_n27
*380 mult_58_n26
*381 mult_58_n25
*382 mult_58_n24
*383 mult_58_n22
*384 mult_58_n21
*385 mult_58_n20
*386 mult_58_n19
*387 mult_58_n18
*388 mult_58_n9
*389 mult_58_n8
*390 mult_58_n7
*391 mult_58_n6
*392 mult_58_n5
*393 mult_58_n4
*394 mult_58_n3
*395 mult_58_n2
*396 sub_1_root_sub_0_root_sub_57_n10
*397 sub_1_root_sub_0_root_sub_57_n9
*398 sub_1_root_sub_0_root_sub_57_n8
*399 sub_1_root_sub_0_root_sub_57_n7
*400 sub_1_root_sub_0_root_sub_57_n6
*401 sub_1_root_sub_0_root_sub_57_n5
*402 sub_1_root_sub_0_root_sub_57_n4
*403 sub_1_root_sub_0_root_sub_57_n3
*404 sub_1_root_sub_0_root_sub_57_n2
*405 sub_1_root_sub_0_root_sub_57_n1
*406 sub_0_root_sub_0_root_sub_57_n10
*407 sub_0_root_sub_0_root_sub_57_n9
*408 sub_0_root_sub_0_root_sub_57_n8
*409 sub_0_root_sub_0_root_sub_57_n7
*410 sub_0_root_sub_0_root_sub_57_n6
*411 sub_0_root_sub_0_root_sub_57_n5
*412 sub_0_root_sub_0_root_sub_57_n4
*413 sub_0_root_sub_0_root_sub_57_n3
*414 sub_0_root_sub_0_root_sub_57_n2
*415 sub_0_root_sub_0_root_sub_57_n1
*416 mult_47_n367
*417 mult_47_n365
*418 mult_47_n364
*419 mult_47_n363
*420 mult_47_n362
*421 mult_47_n361
*422 mult_47_n360
*423 mult_47_n359
*424 mult_47_n358
*425 mult_47_n357
*426 mult_47_n356
*427 mult_47_n355
*428 mult_47_n354
*429 mult_47_n353
*430 mult_47_n351
*431 mult_47_n350
*432 mult_47_n349
*433 mult_47_n348
*434 mult_47_n347
*435 mult_47_n346
*436 mult_47_n344
*437 mult_47_n343
*438 mult_47_n342
*439 mult_47_n341
*440 mult_47_n340
*441 mult_47_n339
*442 mult_47_n338
*443 mult_47_n337
*444 mult_47_n336
*445 mult_47_n335
*446 mult_47_n334
*447 mult_47_n333
*448 mult_47_n332
*449 mult_47_n331
*450 mult_47_n330
*451 mult_47_n329
*452 mult_47_n328
*453 mult_47_n327
*454 mult_47_n326
*455 mult_47_n325
*456 mult_47_n324
*457 mult_47_n323
*458 mult_47_n322
*459 mult_47_n321
*460 mult_47_n320
*461 mult_47_n319
*462 mult_47_n318
*463 mult_47_n317
*464 mult_47_n316
*465 mult_47_n315
*466 mult_47_n314
*467 mult_47_n313
*468 mult_47_n312
*469 mult_47_n311
*470 mult_47_n310
*471 mult_47_n309
*472 mult_47_n308
*473 mult_47_n307
*474 mult_47_n306
*475 mult_47_n305
*476 mult_47_n304
*477 mult_47_n303
*478 mult_47_n302
*479 mult_47_n301
*480 mult_47_n300
*481 mult_47_n299
*482 mult_47_n298
*483 mult_47_n297
*484 mult_47_n295
*485 mult_47_n291
*486 mult_47_n290
*487 mult_47_n289
*488 mult_47_n288
*489 mult_47_n287
*490 mult_47_n286
*491 mult_47_n285
*492 mult_47_n284
*493 mult_47_n283
*494 mult_47_n282
*495 mult_47_n281
*496 mult_47_n280
*497 mult_47_n279
*498 mult_47_n278
*499 mult_47_n277
*500 mult_47_n276
*501 mult_47_n270
*502 mult_47_n269
*503 mult_47_n268
*504 mult_47_n140
*505 mult_47_n139
*506 mult_47_n138
*507 mult_47_n137
*508 mult_47_n136
*509 mult_47_n135
*510 mult_47_n132
*511 mult_47_n131
*512 mult_47_n130
*513 mult_47_n129
*514 mult_47_n128
*515 mult_47_n127
*516 mult_47_n126
*517 mult_47_n124
*518 mult_47_n123
*519 mult_47_n122
*520 mult_47_n121
*521 mult_47_n120
*522 mult_47_n119
*523 mult_47_n118
*524 mult_47_n117
*525 mult_47_n115
*526 mult_47_n114
*527 mult_47_n113
*528 mult_47_n111
*529 mult_47_n110
*530 mult_47_n109
*531 mult_47_n108
*532 mult_47_n106
*533 mult_47_n104
*534 mult_47_n103
*535 mult_47_n102
*536 mult_47_n101
*537 mult_47_n100
*538 mult_47_n99
*539 mult_47_n95
*540 mult_47_n94
*541 mult_47_n93
*542 mult_47_n79
*543 mult_47_n78
*544 mult_47_n77
*545 mult_47_n76
*546 mult_47_n75
*547 mult_47_n74
*548 mult_47_n73
*549 mult_47_n72
*550 mult_47_n71
*551 mult_47_n70
*552 mult_47_n69
*553 mult_47_n68
*554 mult_47_n67
*555 mult_47_n66
*556 mult_47_n65
*557 mult_47_n64
*558 mult_47_n63
*559 mult_47_n62
*560 mult_47_n61
*561 mult_47_n60
*562 mult_47_n59
*563 mult_47_n58
*564 mult_47_n57
*565 mult_47_n56
*566 mult_47_n55
*567 mult_47_n54
*568 mult_47_n53
*569 mult_47_n52
*570 mult_47_n51
*571 mult_47_n50
*572 mult_47_n49
*573 mult_47_n48
*574 mult_47_n46
*575 mult_47_n45
*576 mult_47_n44
*577 mult_47_n43
*578 mult_47_n42
*579 mult_47_n41
*580 mult_47_n40
*581 mult_47_n39
*582 mult_47_n38
*583 mult_47_n37
*584 mult_47_n36
*585 mult_47_n35
*586 mult_47_n34
*587 mult_47_n32
*588 mult_47_n31
*589 mult_47_n30
*590 mult_47_n29
*591 mult_47_n28
*592 mult_47_n27
*593 mult_47_n26
*594 mult_47_n25
*595 mult_47_n24
*596 mult_47_n22
*597 mult_47_n21
*598 mult_47_n20
*599 mult_47_n19
*600 mult_47_n18
*601 mult_47_n9
*602 mult_47_n8
*603 mult_47_n7
*604 mult_47_n6
*605 mult_47_n5
*606 mult_47_n4
*607 mult_47_n3
*608 mult_47_n2
*609 mult_53_n367
*610 mult_53_n366
*611 mult_53_n365
*612 mult_53_n364
*613 mult_53_n363
*614 mult_53_n362
*615 mult_53_n361
*616 mult_53_n360
*617 mult_53_n359
*618 mult_53_n358
*619 mult_53_n357
*620 mult_53_n356
*621 mult_53_n355
*622 mult_53_n354
*623 mult_53_n353
*624 mult_53_n352
*625 mult_53_n351
*626 mult_53_n350
*627 mult_53_n349
*628 mult_53_n348
*629 mult_53_n347
*630 mult_53_n346
*631 mult_53_n345
*632 mult_53_n344
*633 mult_53_n343
*634 mult_53_n342
*635 mult_53_n341
*636 mult_53_n340
*637 mult_53_n339
*638 mult_53_n338
*639 mult_53_n337
*640 mult_53_n336
*641 mult_53_n335
*642 mult_53_n334
*643 mult_53_n333
*644 mult_53_n332
*645 mult_53_n331
*646 mult_53_n330
*647 mult_53_n329
*648 mult_53_n328
*649 mult_53_n327
*650 mult_53_n326
*651 mult_53_n325
*652 mult_53_n324
*653 mult_53_n323
*654 mult_53_n322
*655 mult_53_n321
*656 mult_53_n320
*657 mult_53_n319
*658 mult_53_n318
*659 mult_53_n317
*660 mult_53_n316
*661 mult_53_n315
*662 mult_53_n314
*663 mult_53_n313
*664 mult_53_n312
*665 mult_53_n311
*666 mult_53_n310
*667 mult_53_n309
*668 mult_53_n308
*669 mult_53_n307
*670 mult_53_n306
*671 mult_53_n305
*672 mult_53_n304
*673 mult_53_n303
*674 mult_53_n302
*675 mult_53_n301
*676 mult_53_n300
*677 mult_53_n299
*678 mult_53_n298
*679 mult_53_n297
*680 mult_53_n295
*681 mult_53_n291
*682 mult_53_n290
*683 mult_53_n289
*684 mult_53_n288
*685 mult_53_n287
*686 mult_53_n286
*687 mult_53_n285
*688 mult_53_n284
*689 mult_53_n283
*690 mult_53_n282
*691 mult_53_n281
*692 mult_53_n280
*693 mult_53_n279
*694 mult_53_n278
*695 mult_53_n277
*696 mult_53_n276
*697 mult_53_n270
*698 mult_53_n269
*699 mult_53_n268
*700 mult_53_n140
*701 mult_53_n139
*702 mult_53_n138
*703 mult_53_n137
*704 mult_53_n136
*705 mult_53_n135
*706 mult_53_n132
*707 mult_53_n131
*708 mult_53_n130
*709 mult_53_n129
*710 mult_53_n128
*711 mult_53_n127
*712 mult_53_n126
*713 mult_53_n124
*714 mult_53_n123
*715 mult_53_n122
*716 mult_53_n121
*717 mult_53_n120
*718 mult_53_n119
*719 mult_53_n118
*720 mult_53_n117
*721 mult_53_n115
*722 mult_53_n114
*723 mult_53_n113
*724 mult_53_n111
*725 mult_53_n110
*726 mult_53_n109
*727 mult_53_n108
*728 mult_53_n106
*729 mult_53_n104
*730 mult_53_n103
*731 mult_53_n102
*732 mult_53_n101
*733 mult_53_n100
*734 mult_53_n99
*735 mult_53_n95
*736 mult_53_n94
*737 mult_53_n93
*738 mult_53_n79
*739 mult_53_n78
*740 mult_53_n77
*741 mult_53_n76
*742 mult_53_n75
*743 mult_53_n74
*744 mult_53_n73
*745 mult_53_n72
*746 mult_53_n71
*747 mult_53_n70
*748 mult_53_n69
*749 mult_53_n68
*750 mult_53_n67
*751 mult_53_n66
*752 mult_53_n65
*753 mult_53_n64
*754 mult_53_n63
*755 mult_53_n62
*756 mult_53_n61
*757 mult_53_n60
*758 mult_53_n59
*759 mult_53_n58
*760 mult_53_n57
*761 mult_53_n56
*762 mult_53_n55
*763 mult_53_n54
*764 mult_53_n53
*765 mult_53_n52
*766 mult_53_n51
*767 mult_53_n50
*768 mult_53_n49
*769 mult_53_n48
*770 mult_53_n46
*771 mult_53_n45
*772 mult_53_n44
*773 mult_53_n43
*774 mult_53_n42
*775 mult_53_n41
*776 mult_53_n40
*777 mult_53_n39
*778 mult_53_n38
*779 mult_53_n37
*780 mult_53_n36
*781 mult_53_n35
*782 mult_53_n34
*783 mult_53_n32
*784 mult_53_n31
*785 mult_53_n30
*786 mult_53_n29
*787 mult_53_n28
*788 mult_53_n27
*789 mult_53_n26
*790 mult_53_n25
*791 mult_53_n24
*792 mult_53_n22
*793 mult_53_n21
*794 mult_53_n20
*795 mult_53_n19
*796 mult_53_n18
*797 mult_53_n9
*798 mult_53_n8
*799 mult_53_n7
*800 mult_53_n6
*801 mult_53_n5
*802 mult_53_n4
*803 mult_53_n3
*804 mult_53_n2
*805 mult_45_n367
*806 mult_45_n365
*807 mult_45_n364
*808 mult_45_n363
*809 mult_45_n362
*810 mult_45_n361
*811 mult_45_n360
*812 mult_45_n359
*813 mult_45_n358
*814 mult_45_n357
*815 mult_45_n356
*816 mult_45_n355
*817 mult_45_n354
*818 mult_45_n353
*819 mult_45_n351
*820 mult_45_n350
*821 mult_45_n349
*822 mult_45_n348
*823 mult_45_n347
*824 mult_45_n346
*825 mult_45_n344
*826 mult_45_n343
*827 mult_45_n342
*828 mult_45_n341
*829 mult_45_n340
*830 mult_45_n339
*831 mult_45_n338
*832 mult_45_n337
*833 mult_45_n336
*834 mult_45_n335
*835 mult_45_n334
*836 mult_45_n333
*837 mult_45_n332
*838 mult_45_n331
*839 mult_45_n330
*840 mult_45_n329
*841 mult_45_n328
*842 mult_45_n327
*843 mult_45_n326
*844 mult_45_n325
*845 mult_45_n324
*846 mult_45_n323
*847 mult_45_n322
*848 mult_45_n321
*849 mult_45_n320
*850 mult_45_n319
*851 mult_45_n318
*852 mult_45_n317
*853 mult_45_n316
*854 mult_45_n315
*855 mult_45_n314
*856 mult_45_n313
*857 mult_45_n312
*858 mult_45_n311
*859 mult_45_n310
*860 mult_45_n309
*861 mult_45_n308
*862 mult_45_n307
*863 mult_45_n306
*864 mult_45_n305
*865 mult_45_n304
*866 mult_45_n303
*867 mult_45_n302
*868 mult_45_n301
*869 mult_45_n300
*870 mult_45_n299
*871 mult_45_n298
*872 mult_45_n297
*873 mult_45_n295
*874 mult_45_n291
*875 mult_45_n290
*876 mult_45_n289
*877 mult_45_n288
*878 mult_45_n287
*879 mult_45_n286
*880 mult_45_n285
*881 mult_45_n284
*882 mult_45_n283
*883 mult_45_n282
*884 mult_45_n281
*885 mult_45_n280
*886 mult_45_n279
*887 mult_45_n278
*888 mult_45_n277
*889 mult_45_n276
*890 mult_45_n270
*891 mult_45_n269
*892 mult_45_n268
*893 mult_45_n140
*894 mult_45_n139
*895 mult_45_n138
*896 mult_45_n137
*897 mult_45_n136
*898 mult_45_n135
*899 mult_45_n132
*900 mult_45_n131
*901 mult_45_n130
*902 mult_45_n129
*903 mult_45_n128
*904 mult_45_n127
*905 mult_45_n126
*906 mult_45_n124
*907 mult_45_n123
*908 mult_45_n122
*909 mult_45_n121
*910 mult_45_n120
*911 mult_45_n119
*912 mult_45_n118
*913 mult_45_n117
*914 mult_45_n115
*915 mult_45_n114
*916 mult_45_n113
*917 mult_45_n111
*918 mult_45_n110
*919 mult_45_n109
*920 mult_45_n108
*921 mult_45_n106
*922 mult_45_n104
*923 mult_45_n103
*924 mult_45_n102
*925 mult_45_n101
*926 mult_45_n100
*927 mult_45_n99
*928 mult_45_n95
*929 mult_45_n94
*930 mult_45_n93
*931 mult_45_n79
*932 mult_45_n78
*933 mult_45_n77
*934 mult_45_n76
*935 mult_45_n75
*936 mult_45_n74
*937 mult_45_n73
*938 mult_45_n72
*939 mult_45_n71
*940 mult_45_n70
*941 mult_45_n69
*942 mult_45_n68
*943 mult_45_n67
*944 mult_45_n66
*945 mult_45_n65
*946 mult_45_n64
*947 mult_45_n63
*948 mult_45_n62
*949 mult_45_n61
*950 mult_45_n60
*951 mult_45_n59
*952 mult_45_n58
*953 mult_45_n57
*954 mult_45_n56
*955 mult_45_n55
*956 mult_45_n54
*957 mult_45_n53
*958 mult_45_n52
*959 mult_45_n51
*960 mult_45_n50
*961 mult_45_n49
*962 mult_45_n48
*963 mult_45_n46
*964 mult_45_n45
*965 mult_45_n44
*966 mult_45_n43
*967 mult_45_n42
*968 mult_45_n41
*969 mult_45_n40
*970 mult_45_n39
*971 mult_45_n38
*972 mult_45_n37
*973 mult_45_n36
*974 mult_45_n35
*975 mult_45_n34
*976 mult_45_n32
*977 mult_45_n31
*978 mult_45_n30
*979 mult_45_n29
*980 mult_45_n28
*981 mult_45_n27
*982 mult_45_n26
*983 mult_45_n25
*984 mult_45_n24
*985 mult_45_n22
*986 mult_45_n21
*987 mult_45_n20
*988 mult_45_n19
*989 mult_45_n18
*990 mult_45_n9
*991 mult_45_n8
*992 mult_45_n7
*993 mult_45_n6
*994 mult_45_n5
*995 mult_45_n4
*996 mult_45_n3
*997 mult_45_n2
*998 mult_51_n367
*999 mult_51_n366
*1000 mult_51_n365
*1001 mult_51_n364
*1002 mult_51_n363
*1003 mult_51_n362
*1004 mult_51_n361
*1005 mult_51_n360
*1006 mult_51_n359
*1007 mult_51_n358
*1008 mult_51_n357
*1009 mult_51_n356
*1010 mult_51_n355
*1011 mult_51_n354
*1012 mult_51_n353
*1013 mult_51_n352
*1014 mult_51_n351
*1015 mult_51_n350
*1016 mult_51_n349
*1017 mult_51_n348
*1018 mult_51_n347
*1019 mult_51_n346
*1020 mult_51_n345
*1021 mult_51_n344
*1022 mult_51_n343
*1023 mult_51_n342
*1024 mult_51_n341
*1025 mult_51_n340
*1026 mult_51_n339
*1027 mult_51_n338
*1028 mult_51_n337
*1029 mult_51_n336
*1030 mult_51_n335
*1031 mult_51_n334
*1032 mult_51_n333
*1033 mult_51_n332
*1034 mult_51_n331
*1035 mult_51_n330
*1036 mult_51_n329
*1037 mult_51_n328
*1038 mult_51_n327
*1039 mult_51_n326
*1040 mult_51_n325
*1041 mult_51_n324
*1042 mult_51_n323
*1043 mult_51_n322
*1044 mult_51_n321
*1045 mult_51_n320
*1046 mult_51_n319
*1047 mult_51_n318
*1048 mult_51_n317
*1049 mult_51_n316
*1050 mult_51_n315
*1051 mult_51_n314
*1052 mult_51_n313
*1053 mult_51_n312
*1054 mult_51_n311
*1055 mult_51_n310
*1056 mult_51_n309
*1057 mult_51_n308
*1058 mult_51_n307
*1059 mult_51_n306
*1060 mult_51_n305
*1061 mult_51_n304
*1062 mult_51_n303
*1063 mult_51_n302
*1064 mult_51_n301
*1065 mult_51_n300
*1066 mult_51_n299
*1067 mult_51_n298
*1068 mult_51_n297
*1069 mult_51_n295
*1070 mult_51_n291
*1071 mult_51_n290
*1072 mult_51_n289
*1073 mult_51_n288
*1074 mult_51_n287
*1075 mult_51_n286
*1076 mult_51_n285
*1077 mult_51_n284
*1078 mult_51_n283
*1079 mult_51_n282
*1080 mult_51_n281
*1081 mult_51_n280
*1082 mult_51_n279
*1083 mult_51_n278
*1084 mult_51_n277
*1085 mult_51_n276
*1086 mult_51_n270
*1087 mult_51_n269
*1088 mult_51_n268
*1089 mult_51_n140
*1090 mult_51_n139
*1091 mult_51_n138
*1092 mult_51_n137
*1093 mult_51_n136
*1094 mult_51_n135
*1095 mult_51_n132
*1096 mult_51_n131
*1097 mult_51_n130
*1098 mult_51_n129
*1099 mult_51_n128
*1100 mult_51_n127
*1101 mult_51_n126
*1102 mult_51_n124
*1103 mult_51_n123
*1104 mult_51_n122
*1105 mult_51_n121
*1106 mult_51_n120
*1107 mult_51_n119
*1108 mult_51_n118
*1109 mult_51_n117
*1110 mult_51_n115
*1111 mult_51_n114
*1112 mult_51_n113
*1113 mult_51_n111
*1114 mult_51_n110
*1115 mult_51_n109
*1116 mult_51_n108
*1117 mult_51_n106
*1118 mult_51_n104
*1119 mult_51_n103
*1120 mult_51_n102
*1121 mult_51_n101
*1122 mult_51_n100
*1123 mult_51_n99
*1124 mult_51_n95
*1125 mult_51_n94
*1126 mult_51_n93
*1127 mult_51_n79
*1128 mult_51_n78
*1129 mult_51_n77
*1130 mult_51_n76
*1131 mult_51_n75
*1132 mult_51_n74
*1133 mult_51_n73
*1134 mult_51_n72
*1135 mult_51_n71
*1136 mult_51_n70
*1137 mult_51_n69
*1138 mult_51_n68
*1139 mult_51_n67
*1140 mult_51_n66
*1141 mult_51_n65
*1142 mult_51_n64
*1143 mult_51_n63
*1144 mult_51_n62
*1145 mult_51_n61
*1146 mult_51_n60
*1147 mult_51_n59
*1148 mult_51_n58
*1149 mult_51_n57
*1150 mult_51_n56
*1151 mult_51_n55
*1152 mult_51_n54
*1153 mult_51_n53
*1154 mult_51_n52
*1155 mult_51_n51
*1156 mult_51_n50
*1157 mult_51_n49
*1158 mult_51_n48
*1159 mult_51_n46
*1160 mult_51_n45
*1161 mult_51_n44
*1162 mult_51_n43
*1163 mult_51_n42
*1164 mult_51_n41
*1165 mult_51_n40
*1166 mult_51_n39
*1167 mult_51_n38
*1168 mult_51_n37
*1169 mult_51_n36
*1170 mult_51_n35
*1171 mult_51_n34
*1172 mult_51_n32
*1173 mult_51_n31
*1174 mult_51_n30
*1175 mult_51_n29
*1176 mult_51_n28
*1177 mult_51_n27
*1178 mult_51_n26
*1179 mult_51_n25
*1180 mult_51_n24
*1181 mult_51_n22
*1182 mult_51_n21
*1183 mult_51_n20
*1184 mult_51_n19
*1185 mult_51_n18
*1186 mult_51_n9
*1187 mult_51_n8
*1188 mult_51_n7
*1189 mult_51_n6
*1190 mult_51_n5
*1191 mult_51_n4
*1192 mult_51_n3
*1193 mult_51_n2
*1194 sw[17]
*1195 sw[16]
*1196 sw[15]
*1197 sw[14]
*1198 sw[13]
*1199 sw[12]
*1200 sw[11]
*1201 sw[10]
*1202 sw[9]
*1203 sw[8]
*1204 sw[7]
*1205 sw[6]
*1206 sw[5]
*1207 sw[4]
*1208 sw[3]
*1209 sw[2]
*1210 sw[1]
*1211 sw[0]
*1212 Din_out_reg[8]
*1213 Din_out_reg[7]
*1214 Din_out_reg[6]
*1215 Din_out_reg[5]
*1216 Din_out_reg[4]
*1217 Din_out_reg[3]
*1218 Din_out_reg[2]
*1219 Din_out_reg[1]
*1220 Din_out_reg[0]
*1221 w[8]
*1222 w[7]
*1223 w[6]
*1224 w[5]
*1225 w[4]
*1226 w[3]
*1227 w[2]
*1228 w[1]
*1229 w[0]
*1230 y_ext[16]
*1231 y_ext[15]
*1232 y_ext[14]
*1233 y_ext[13]
*1234 y_ext[12]
*1235 y_ext[11]
*1236 y_ext[10]
*1237 y_ext[9]
*1238 y_ext[8]
*1239 DOUT_ext[8]
*1240 DOUT_ext[7]
*1241 DOUT_ext[6]
*1242 DOUT_ext[5]
*1243 DOUT_ext[4]
*1244 DOUT_ext[3]
*1245 DOUT_ext[2]
*1246 DOUT_ext[1]
*1247 DOUT_ext[0]
*1248 add_1_root_add_0_root_add_60_carry[8]
*1249 add_1_root_add_0_root_add_60_carry[7]
*1250 add_1_root_add_0_root_add_60_carry[6]
*1251 add_1_root_add_0_root_add_60_carry[5]
*1252 add_1_root_add_0_root_add_60_carry[4]
*1253 add_1_root_add_0_root_add_60_carry[3]
*1254 add_1_root_add_0_root_add_60_carry[2]
*1255 add_0_root_add_0_root_add_60_carry[8]
*1256 add_0_root_add_0_root_add_60_carry[7]
*1257 add_0_root_add_0_root_add_60_carry[6]
*1258 add_0_root_add_0_root_add_60_carry[5]
*1259 add_0_root_add_0_root_add_60_carry[4]
*1260 add_0_root_add_0_root_add_60_carry[3]
*1261 add_0_root_add_0_root_add_60_carry[2]
*1262 sub_1_root_sub_0_root_sub_57_carry[8]
*1263 sub_1_root_sub_0_root_sub_57_carry[7]
*1264 sub_1_root_sub_0_root_sub_57_carry[6]
*1265 sub_1_root_sub_0_root_sub_57_carry[5]
*1266 sub_1_root_sub_0_root_sub_57_carry[4]
*1267 sub_1_root_sub_0_root_sub_57_carry[3]
*1268 sub_1_root_sub_0_root_sub_57_carry[2]
*1269 sub_1_root_sub_0_root_sub_57_carry[1]
*1270 sub_0_root_sub_0_root_sub_57_carry[8]
*1271 sub_0_root_sub_0_root_sub_57_carry[7]
*1272 sub_0_root_sub_0_root_sub_57_carry[6]
*1273 sub_0_root_sub_0_root_sub_57_carry[5]
*1274 sub_0_root_sub_0_root_sub_57_carry[4]
*1275 sub_0_root_sub_0_root_sub_57_carry[3]
*1276 sub_0_root_sub_0_root_sub_57_carry[2]
*1277 sub_0_root_sub_0_root_sub_57_carry[1]
*1278 FE_OFC19_mult_53_n307
*1279 FE_OFC18_mult_51_n304
*1280 FE_OFC17_mult_53_n304
*1281 FE_OFC16_mult_51_n307
*1282 FE_OFC15_mult_45_n304
*1283 FE_OFC14_mult_47_n304
*1284 FE_OFC13_mult_47_n307
*1285 FE_OFC12_mult_45_n307
*1286 FE_OFC11_sw_10
*1287 FE_OFC10_sw_12
*1288 FE_OFC9_sw_1
*1289 FE_OFC8_sw_14
*1290 FE_OFC7_sw_3
*1291 FE_OFC6_sw_16
*1292 FE_OFC5_sw_17
*1293 FE_OFC4_mult_58_n299
*1294 FE_OFC3_sw_5
*1295 FE_OFC2_sw_7
*1296 FE_OFC1_mult_58_n302
*1297 FE_OFC0_sw_8
*1298 FE_RC_18_0
*1299 FE_RC_17_0
*1300 FE_RC_16_0
*1301 FE_RC_15_0
*1302 FE_RC_14_0
*1303 FE_RC_13_0
*1304 FE_RC_12_0
*1305 FE_RC_11_0
*1306 FE_RC_10_0
*1307 FE_RC_9_0
*1308 FE_RC_8_0
*1309 FE_RC_7_0
*1310 FE_RC_6_0
*1311 FE_RC_5_0
*1312 FE_RC_4_0
*1313 FE_RC_3_0
*1314 FE_RC_2_0
*1315 FE_RC_1_0
*1316 FE_RC_0_0
*1317 FE_DBTC11_w_7
*1318 FE_DBTC10_w_5
*1319 FE_DBTC9_w_3
*1320 FE_DBTC8_w_0
*1321 FE_DBTC7_sw_0
*1322 FE_DBTC6_sw_3
*1323 FE_DBTC5_sw_5
*1324 FE_DBTC4_sw_7
*1325 FE_DBTC3_sw_9
*1326 FE_DBTC2_sw_12
*1327 FE_DBTC1_sw_14
*1328 FE_DBTC0_sw_16
*1329 Din_out_reg_reg_8_
*1330 Din_out_reg_reg_7_
*1331 Din_out_reg_reg_6_
*1332 Din_out_reg_reg_5_
*1333 Din_out_reg_reg_4_
*1334 Din_out_reg_reg_3_
*1335 Din_out_reg_reg_2_
*1336 Din_out_reg_reg_1_
*1337 Din_out_reg_reg_0_
*1338 VOUT_reg
*1339 DOUT_reg_8_
*1340 DOUT_reg_7_
*1341 DOUT_reg_6_
*1342 DOUT_reg_5_
*1343 DOUT_reg_4_
*1344 DOUT_reg_3_
*1345 DOUT_reg_2_
*1346 DOUT_reg_1_
*1347 DOUT_reg_0_
*1348 sw_reg_0__8_
*1349 sw_reg_0__7_
*1350 sw_reg_0__6_
*1351 sw_reg_0__5_
*1352 sw_reg_0__4_
*1353 sw_reg_0__3_
*1354 sw_reg_0__2_
*1355 sw_reg_0__1_
*1356 sw_reg_0__0_
*1357 sw_reg_1__8_
*1358 sw_reg_1__7_
*1359 sw_reg_1__6_
*1360 sw_reg_1__5_
*1361 sw_reg_1__4_
*1362 sw_reg_1__3_
*1363 sw_reg_1__2_
*1364 sw_reg_1__1_
*1365 sw_reg_1__0_
*1366 Vin_delayed_reg
*1367 U49
*1368 U50
*1369 U51
*1370 U53
*1371 U55
*1372 U56
*1373 U57
*1374 U59
*1375 U60
*1376 U61
*1377 U63
*1378 U64
*1379 U65
*1380 U66
*1381 U71
*1382 U72
*1383 U73
*1384 U74
*1385 U75
*1386 U76
*1387 U77
*1388 U78
*1389 U79
*1390 U80
*1391 U81
*1392 U82
*1393 U83
*1394 U84
*1395 U85
*1396 U86
*1397 U87
*1398 U88
*1399 U91
*1400 add_1_root_add_0_root_add_60_U2
*1401 add_1_root_add_0_root_add_60_U1
*1402 add_1_root_add_0_root_add_60_U1_1
*1403 add_1_root_add_0_root_add_60_U1_2
*1404 add_1_root_add_0_root_add_60_U1_3
*1405 add_1_root_add_0_root_add_60_U1_4
*1406 add_1_root_add_0_root_add_60_U1_5
*1407 add_1_root_add_0_root_add_60_U1_6
*1408 add_1_root_add_0_root_add_60_U1_7
*1409 add_1_root_add_0_root_add_60_U1_8
*1410 add_0_root_add_0_root_add_60_U2
*1411 add_0_root_add_0_root_add_60_U1
*1412 add_0_root_add_0_root_add_60_U1_1
*1413 add_0_root_add_0_root_add_60_U1_2
*1414 add_0_root_add_0_root_add_60_U1_3
*1415 add_0_root_add_0_root_add_60_U1_4
*1416 add_0_root_add_0_root_add_60_U1_5
*1417 add_0_root_add_0_root_add_60_U1_6
*1418 add_0_root_add_0_root_add_60_U1_7
*1419 add_0_root_add_0_root_add_60_U1_8
*1420 mult_58_U351
*1421 mult_58_U350
*1422 mult_58_U349
*1423 mult_58_U348
*1424 mult_58_U347
*1425 mult_58_U346
*1426 mult_58_U345
*1427 mult_58_U344
*1428 mult_58_U343
*1429 mult_58_U342
*1430 mult_58_U341
*1431 mult_58_U340
*1432 mult_58_U339
*1433 mult_58_U338
*1434 mult_58_U337
*1435 mult_58_U336
*1436 mult_58_U335
*1437 mult_58_U334
*1438 mult_58_U333
*1439 mult_58_U332
*1440 mult_58_U331
*1441 mult_58_U330
*1442 mult_58_U329
*1443 mult_58_U328
*1444 mult_58_U327
*1445 mult_58_U326
*1446 mult_58_U325
*1447 mult_58_U324
*1448 mult_58_U322
*1449 mult_58_U321
*1450 mult_58_U320
*1451 mult_58_U319
*1452 mult_58_U318
*1453 mult_58_U317
*1454 mult_58_U316
*1455 mult_58_U315
*1456 mult_58_U314
*1457 mult_58_U313
*1458 mult_58_U312
*1459 mult_58_U311
*1460 mult_58_U310
*1461 mult_58_U309
*1462 mult_58_U308
*1463 mult_58_U307
*1464 mult_58_U306
*1465 mult_58_U305
*1466 mult_58_U303
*1467 mult_58_U302
*1468 mult_58_U301
*1469 mult_58_U300
*1470 mult_58_U299
*1471 mult_58_U298
*1472 mult_58_U297
*1473 mult_58_U296
*1474 mult_58_U295
*1475 mult_58_U294
*1476 mult_58_U293
*1477 mult_58_U292
*1478 mult_58_U291
*1479 mult_58_U290
*1480 mult_58_U289
*1481 mult_58_U288
*1482 mult_58_U287
*1483 mult_58_U285
*1484 mult_58_U284
*1485 mult_58_U283
*1486 mult_58_U282
*1487 mult_58_U281
*1488 mult_58_U280
*1489 mult_58_U279
*1490 mult_58_U278
*1491 mult_58_U277
*1492 mult_58_U276
*1493 mult_58_U275
*1494 mult_58_U274
*1495 mult_58_U273
*1496 mult_58_U272
*1497 mult_58_U271
*1498 mult_58_U270
*1499 mult_58_U268
*1500 mult_58_U267
*1501 mult_58_U266
*1502 mult_58_U265
*1503 mult_58_U264
*1504 mult_58_U263
*1505 mult_58_U262
*1506 mult_58_U261
*1507 mult_58_U260
*1508 mult_58_U259
*1509 mult_58_U258
*1510 mult_58_U257
*1511 mult_58_U256
*1512 mult_58_U255
*1513 mult_58_U254
*1514 mult_58_U253
*1515 mult_58_U252
*1516 mult_58_U251
*1517 mult_58_U250
*1518 mult_58_U249
*1519 mult_58_U248
*1520 mult_58_U247
*1521 mult_58_U246
*1522 mult_58_U245
*1523 mult_58_U244
*1524 mult_58_U243
*1525 mult_58_U242
*1526 mult_58_U241
*1527 mult_58_U240
*1528 mult_58_U239
*1529 mult_58_U238
*1530 mult_58_U237
*1531 mult_58_U236
*1532 mult_58_U235
*1533 mult_58_U234
*1534 mult_58_U233
*1535 mult_58_U232