*SPEF "IEEE 1481-1998"
*DESIGN "IIR_FILTER_ADVANCED"
*DATE "Tue Nov 17 21:53:19 2020"
*VENDOR "Cadence Design Systems, Inc."
*PROGRAM "Innovus"
*VERSION "17.11-s080_1"
*DESIGN_FLOW "COUPLING C" "PIN_CAP NONE" "NAME_SCOPE LOCAL"
*DIVIDER /
*DELIMITER :
*BUS_DELIMITER []
*T_UNIT 1 NS
*C_UNIT 1 PF
*R_UNIT 1 OHM
*L_UNIT 1 HENRY

// MMMC spef file for corner 'my_rc'

*NAME_MAP

*1 CLK
*2 RST_n
*3 VIN
*4 DIN[8]
*5 DIN[7]
*6 DIN[6]
*7 DIN[5]
*8 DIN[4]
*9 DIN[3]
*10 DIN[2]
*11 DIN[1]
*12 DIN[0]
*13 A1[8]
*14 A1[7]
*15 A1[6]
*16 A1[5]
*17 A1[4]
*18 A1[3]
*19 A1[2]
*20 A1[1]
*21 A1[0]
*22 A2[8]
*23 A2[7]
*24 A2[6]
*25 A2[5]
*26 A2[4]
*27 A2[3]
*28 A2[2]
*29 A2[1]
*30 A2[0]
*31 B0[8]
*32 B0[7]
*33 B0[6]
*34 B0[5]
*35 B0[4]
*36 B0[3]
*37 B0[2]
*38 B0[1]
*39 B0[0]
*40 B1[8]
*41 B1[7]
*42 B1[6]
*43 B1[5]
*44 B1[4]
*45 B1[3]
*46 B1[2]
*47 B1[1]
*48 B1[0]
*49 B2[8]
*50 B2[7]
*51 B2[6]
*52 B2[5]
*53 B2[4]
*54 B2[3]
*55 B2[2]
*56 B2[1]
*57 B2[0]
*58 VOUT
*59 DOUT[8]
*60 DOUT[7]
*61 DOUT[6]
*62 DOUT[5]
*63 DOUT[4]
*64 DOUT[3]
*65 DOUT[2]
*66 DOUT[1]
*67 DOUT[0]
*68 FE_OFN11_RST_n
*69 FE_OFN10_RST_n
*70 FE_OFN9_RST_n
*71 FE_OFN8_n333
*72 FE_OFN7_sw_12
*73 FE_OFN6_sw_10
*74 FE_OFN5_sw_16
*75 FE_OFN4_n160
*76 FE_OFN3_sw_14
*77 FE_OFN2_sw_17
*78 FE_OFN1_Vin_delayed_1
*79 FE_OFN0_n161
*80 FE_DBTN9_A1_1
*81 FE_DBTN8_A1_0
*82 FE_DBTN7_A2_1
*83 FE_DBTN6_A2_0
*84 FE_DBTN5_Vin_delayed_1
*85 FE_DBTN4_n161
*86 FE_DBTN3_sw_9
*87 FE_DBTN2_sw_12
*88 FE_DBTN1_sw_14
*89 FE_DBTN0_sw_16
*90 Vin_delayed_1
*91 Vin_delayed_2
*92 Vin_delayed_3
*93 Vin_delayed_4
*94 n1
*95 n2
*96 n3
*97 n4
*98 n5
*99 n6
*100 n7
*101 n8
*102 n9
*103 n10
*104 n12
*105 n13
*106 n14
*107 n15
*108 n16
*109 n17
*110 n18
*111 n19
*112 n20
*113 n21
*114 n22
*115 n23
*116 n24
*117 n25
*118 n26
*119 n27
*120 n28
*121 n39
*122 n40
*123 n41
*124 n42
*125 n43
*126 n44
*127 n45
*128 n46
*129 n47
*130 n58
*131 n60
*132 n62
*133 n64
*134 n66
*135 n68
*136 n70
*137 n72
*138 n74
*139 n75
*140 n78
*141 n80
*142 n82
*143 n84
*144 n86
*145 n88
*146 n90
*147 n92
*148 n103
*149 n105
*150 n107
*151 n109
*152 n111
*153 n113
*154 n115
*155 n117
*156 n119
*157 n121
*158 n122
*159 n123
*160 n124
*161 n125
*162 n126
*163 n127
*164 n128
*165 n129
*166 n130
*167 n131
*168 n132
*169 n133
*170 n134
*171 n135
*172 n136
*173 n137
*174 n138
*175 n139
*176 n140
*177 n141
*178 n142
*179 n143
*180 n144
*181 n145
*182 n146
*183 n147
*184 n149
*185 n160
*186 n161
*187 n162
*188 n163
*189 n164
*190 n165
*191 n166
*192 n167
*193 n168
*194 n169
*195 n170
*196 n171
*197 n172
*198 n173
*199 n174
*200 n175
*201 n176
*202 n177
*203 n178
*204 n179
*205 n180
*206 n181
*207 n182
*208 n183
*209 n184
*210 n185
*211 n186
*212 n187
*213 n188
*214 n189
*215 n190
*216 n191
*217 n192
*218 n193
*219 n194
*220 n195
*221 n196
*222 n197
*223 n207
*224 n208
*225 n209
*226 n210
*227 n211
*228 n212
*229 n213
*230 n214
*231 n215
*232 n216
*233 n217
*234 n218
*235 n219
*236 n220
*237 n221
*238 n222
*239 n223
*240 n224
*241 n234
*242 n235
*243 n236
*244 n237
*245 n238
*246 n239
*247 n240
*248 n241
*249 n242
*250 n243
*251 n244
*252 n245
*253 n246
*254 n247
*255 n248
*256 n249
*257 n250
*258 n251
*259 n252
*260 n253
*261 n254
*262 n255
*263 n256
*264 n257
*265 n258
*266 n259
*267 n260
*268 n261
*269 n262
*270 n263
*271 n264
*272 n265
*273 n266
*274 n267
*275 n268
*276 n269
*277 n270
*278 n271
*279 n272
*280 n273
*281 n274
*282 n275
*283 n276
*284 n277
*285 n278
*286 n279
*287 n280
*288 n281
*289 n282
*290 n283
*291 n284
*292 n285
*293 n286
*294 n287
*295 n288
*296 n289
*297 n290
*298 n291
*299 n292
*300 n293
*301 n294
*302 n295
*303 n296
*304 n315
*305 n316
*306 n317
*307 n318
*308 n319
*309 n320
*310 n321
*311 n322
*312 n323
*313 n324
*314 n325
*315 n326
*316 n327
*317 n328
*318 n329
*319 n330
*320 n331
*321 n332
*322 psum_b_8_
*323 psum_b_7_
*324 psum_b_6_
*325 psum_b_5_
*326 psum_b_4_
*327 psum_b_3_
*328 psum_b_2_
*329 psum_b_1_
*330 psum_b_0_
*331 outadd_2_8_
*332 outadd_2_7_
*333 outadd_2_6_
*334 outadd_2_5_
*335 outadd_2_4_
*336 outadd_2_3_
*337 outadd_2_2_
*338 outadd_2_1_
*339 outadd_2_0_
*340 outadd_0_8_
*341 outadd_0_7_
*342 outadd_0_6_
*343 outadd_0_5_
*344 outadd_0_4_
*345 outadd_0_3_
*346 outadd_0_2_
*347 outadd_0_1_
*348 outadd_0_0_
*349 n333
*350 n359
*351 n367
*352 n379
*353 n380
*354 n381
*355 n382
*356 n383
*357 n384
*358 n385
*359 n386
*360 n387
*361 n388
*362 n389
*363 n390
*364 n391
*365 n392
*366 n393
*367 n394
*368 n395
*369 n396
*370 n397
*371 n398
*372 n399
*373 n400
*374 n401
*375 n402
*376 n403
*377 n404
*378 n405
*379 n406
*380 n407
*381 n408
*382 n409
*383 n410
*384 n411
*385 n412
*386 n413
*387 n414
*388 n415
*389 n416
*390 n417
*391 n418
*392 n419
*393 n420
*394 n421
*395 n422
*396 n423
*397 n424
*398 n425
*399 n426
*400 n427
*401 n428
*402 n429
*403 n430
*404 n431
*405 n432
*406 n433
*407 n434
*408 n435
*409 n436
*410 n437
*411 n438
*412 n439
*413 n440
*414 n441
*415 n442
*416 n443
*417 n444
*418 n445
*419 n446
*420 n447
*421 n448
*422 n449
*423 n450
*424 n451
*425 n452
*426 n453
*427 n454
*428 n455
*429 n456
*430 n457
*431 n458
*432 n459
*433 n460
*434 n461
*435 n462
*436 n463
*437 n464
*438 n465
*439 n466
*440 n467
*441 n468
*442 n469
*443 n470
*444 n471
*445 n472
*446 n473
*447 n474
*448 n475
*449 n476
*450 n477
*451 n478
*452 sub_1_root_sub_0_root_sub_78_n10
*453 sub_1_root_sub_0_root_sub_78_n9
*454 sub_1_root_sub_0_root_sub_78_n8
*455 sub_1_root_sub_0_root_sub_78_n7
*456 sub_1_root_sub_0_root_sub_78_n6
*457 sub_1_root_sub_0_root_sub_78_n5
*458 sub_1_root_sub_0_root_sub_78_n4
*459 sub_1_root_sub_0_root_sub_78_n3
*460 sub_1_root_sub_0_root_sub_78_n2
*461 sub_1_root_sub_0_root_sub_78_n1
*462 sub_0_root_sub_0_root_sub_78_n10
*463 sub_0_root_sub_0_root_sub_78_n9
*464 sub_0_root_sub_0_root_sub_78_n8
*465 sub_0_root_sub_0_root_sub_78_n7
*466 sub_0_root_sub_0_root_sub_78_n6
*467 sub_0_root_sub_0_root_sub_78_n5
*468 sub_0_root_sub_0_root_sub_78_n4
*469 sub_0_root_sub_0_root_sub_78_n3
*470 sub_0_root_sub_0_root_sub_78_n2
*471 sub_0_root_sub_0_root_sub_78_n1
*472 add_1_root_add_0_root_add_101_n1
*473 add_0_root_add_0_root_add_101_n1
*474 add_1_root_sub_0_root_sub_93_n1
*475 sub_0_root_sub_0_root_sub_93_n10
*476 sub_0_root_sub_0_root_sub_93_n9
*477 sub_0_root_sub_0_root_sub_93_n8
*478 sub_0_root_sub_0_root_sub_93_n7
*479 sub_0_root_sub_0_root_sub_93_n6
*480 sub_0_root_sub_0_root_sub_93_n5
*481 sub_0_root_sub_0_root_sub_93_n4
*482 sub_0_root_sub_0_root_sub_93_n3
*483 sub_0_root_sub_0_root_sub_93_n2
*484 sub_0_root_sub_0_root_sub_93_n1
*485 mult_89_n362
*486 mult_89_n361
*487 mult_89_n360
*488 mult_89_n359
*489 mult_89_n358
*490 mult_89_n357
*491 mult_89_n356
*492 mult_89_n355
*493 mult_89_n354
*494 mult_89_n353
*495 mult_89_n352
*496 mult_89_n351
*497 mult_89_n350
*498 mult_89_n349
*499 mult_89_n348
*500 mult_89_n347
*501 mult_89_n346
*502 mult_89_n345
*503 mult_89_n344
*504 mult_89_n343
*505 mult_89_n342
*506 mult_89_n341
*507 mult_89_n340
*508 mult_89_n339
*509 mult_89_n338
*510 mult_89_n337
*511 mult_89_n336
*512 mult_89_n335
*513 mult_89_n334
*514 mult_89_n333
*515 mult_89_n332
*516 mult_89_n331
*517 mult_89_n330
*518 mult_89_n329
*519 mult_89_n328
*520 mult_89_n327
*521 mult_89_n326
*522 mult_89_n325
*523 mult_89_n324
*524 mult_89_n323
*525 mult_89_n322
*526 mult_89_n321
*527 mult_89_n320
*528 mult_89_n319
*529 mult_89_n318
*530 mult_89_n317
*531 mult_89_n316
*532 mult_89_n315
*533 mult_89_n314
*534 mult_89_n313
*535 mult_89_n312
*536 mult_89_n311
*537 mult_89_n310
*538 mult_89_n309
*539 mult_89_n308
*540 mult_89_n307
*541 mult_89_n306
*542 mult_89_n305
*543 mult_89_n304
*544 mult_89_n303
*545 mult_89_n302
*546 mult_89_n301
*547 mult_89_n300
*548 mult_89_n299
*549 mult_89_n298
*550 mult_89_n297
*551 mult_89_n296
*552 mult_89_n295
*553 mult_89_n294
*554 mult_89_n293
*555 mult_89_n292
*556 mult_89_n291
*557 mult_89_n290
*558 mult_89_n289
*559 mult_89_n288
*560 mult_89_n287
*561 mult_89_n286
*562 mult_89_n285
*563 mult_89_n284
*564 mult_89_n283
*565 mult_89_n282
*566 mult_89_n281
*567 mult_89_n280
*568 mult_89_n279
*569 mult_89_n278
*570 mult_89_n277
*571 mult_89_n276
*572 mult_89_n275
*573 mult_89_n274
*574 mult_89_n273
*575 mult_89_n272
*576 mult_89_n271
*577 mult_89_n270
*578 mult_89_n269
*579 mult_89_n268
*580 mult_89_n140
*581 mult_89_n139
*582 mult_89_n138
*583 mult_89_n137
*584 mult_89_n136
*585 mult_89_n135
*586 mult_89_n132
*587 mult_89_n131
*588 mult_89_n130
*589 mult_89_n129
*590 mult_89_n128
*591 mult_89_n127
*592 mult_89_n126
*593 mult_89_n124
*594 mult_89_n123
*595 mult_89_n122
*596 mult_89_n121
*597 mult_89_n120
*598 mult_89_n119
*599 mult_89_n118
*600 mult_89_n117
*601 mult_89_n115
*602 mult_89_n114
*603 mult_89_n113
*604 mult_89_n111
*605 mult_89_n110
*606 mult_89_n109
*607 mult_89_n108
*608 mult_89_n106
*609 mult_89_n104
*610 mult_89_n103
*611 mult_89_n102
*612 mult_89_n101
*613 mult_89_n100
*614 mult_89_n99
*615 mult_89_n95
*616 mult_89_n94
*617 mult_89_n93
*618 mult_89_n79
*619 mult_89_n78
*620 mult_89_n77
*621 mult_89_n76
*622 mult_89_n75
*623 mult_89_n74
*624 mult_89_n73
*625 mult_89_n72
*626 mult_89_n71
*627 mult_89_n70
*628 mult_89_n69
*629 mult_89_n68
*630 mult_89_n67
*631 mult_89_n66
*632 mult_89_n65
*633 mult_89_n64
*634 mult_89_n63
*635 mult_89_n62
*636 mult_89_n61
*637 mult_89_n60
*638 mult_89_n59
*639 mult_89_n58
*640 mult_89_n57
*641 mult_89_n56
*642 mult_89_n55
*643 mult_89_n54
*644 mult_89_n53
*645 mult_89_n52
*646 mult_89_n51
*647 mult_89_n50
*648 mult_89_n49
*649 mult_89_n48
*650 mult_89_n46
*651 mult_89_n45
*652 mult_89_n44
*653 mult_89_n43
*654 mult_89_n42
*655 mult_89_n41
*656 mult_89_n40
*657 mult_89_n39
*658 mult_89_n38
*659 mult_89_n37
*660 mult_89_n36
*661 mult_89_n35
*662 mult_89_n34
*663 mult_89_n32
*664 mult_89_n31
*665 mult_89_n30
*666 mult_89_n29
*667 mult_89_n28
*668 mult_89_n27
*669 mult_89_n26
*670 mult_89_n25
*671 mult_89_n24
*672 mult_89_n22
*673 mult_89_n21
*674 mult_89_n20
*675 mult_89_n19
*676 mult_89_n18
*677 mult_89_n9
*678 mult_89_n8
*679 mult_89_n7
*680 mult_89_n6
*681 mult_89_n5
*682 mult_89_n4
*683 mult_89_n3
*684 mult_89_n2
*685 mult_96_n362
*686 mult_96_n361
*687 mult_96_n360
*688 mult_96_n359
*689 mult_96_n358
*690 mult_96_n357
*691 mult_96_n356
*692 mult_96_n355
*693 mult_96_n354
*694 mult_96_n353
*695 mult_96_n352
*696 mult_96_n351
*697 mult_96_n350
*698 mult_96_n349
*699 mult_96_n348
*700 mult_96_n347
*701 mult_96_n346
*702 mult_96_n345
*703 mult_96_n344
*704 mult_96_n343
*705 mult_96_n342
*706 mult_96_n341
*707 mult_96_n340
*708 mult_96_n339
*709 mult_96_n338
*710 mult_96_n337
*711 mult_96_n336
*712 mult_96_n335
*713 mult_96_n334
*714 mult_96_n333
*715 mult_96_n332
*716 mult_96_n331
*717 mult_96_n330
*718 mult_96_n329
*719 mult_96_n328
*720 mult_96_n327
*721 mult_96_n326
*722 mult_96_n325
*723 mult_96_n324
*724 mult_96_n323
*725 mult_96_n322
*726 mult_96_n321
*727 mult_96_n320
*728 mult_96_n319
*729 mult_96_n318
*730 mult_96_n317
*731 mult_96_n316
*732 mult_96_n315
*733 mult_96_n314
*734 mult_96_n313
*735 mult_96_n312
*736 mult_96_n311
*737 mult_96_n310
*738 mult_96_n309
*739 mult_96_n308
*740 mult_96_n307
*741 mult_96_n306
*742 mult_96_n305
*743 mult_96_n304
*744 mult_96_n303
*745 mult_96_n302
*746 mult_96_n301
*747 mult_96_n300
*748 mult_96_n299
*749 mult_96_n298
*750 mult_96_n297
*751 mult_96_n296
*752 mult_96_n295
*753 mult_96_n294
*754 mult_96_n293
*755 mult_96_n292
*756 mult_96_n291
*757 mult_96_n290
*758 mult_96_n289
*759 mult_96_n288
*760 mult_96_n287
*761 mult_96_n286
*762 mult_96_n285
*763 mult_96_n284
*764 mult_96_n283
*765 mult_96_n282
*766 mult_96_n281
*767 mult_96_n280
*768 mult_96_n279
*769 mult_96_n278
*770 mult_96_n277
*771 mult_96_n276
*772 mult_96_n275
*773 mult_96_n274
*774 mult_96_n273
*775 mult_96_n272
*776 mult_96_n271
*777 mult_96_n270
*778 mult_96_n269
*779 mult_96_n268
*780 mult_96_n140
*781 mult_96_n139
*782 mult_96_n138
*783 mult_96_n137
*784 mult_96_n136
*785 mult_96_n135
*786 mult_96_n132
*787 mult_96_n131
*788 mult_96_n130
*789 mult_96_n129
*790 mult_96_n128
*791 mult_96_n127
*792 mult_96_n126
*793 mult_96_n124
*794 mult_96_n123
*795 mult_96_n122
*796 mult_96_n121
*797 mult_96_n120
*798 mult_96_n119
*799 mult_96_n118
*800 mult_96_n117
*801 mult_96_n115
*802 mult_96_n114
*803 mult_96_n113
*804 mult_96_n111
*805 mult_96_n110
*806 mult_96_n109
*807 mult_96_n108
*808 mult_96_n106
*809 mult_96_n104
*810 mult_96_n103
*811 mult_96_n102
*812 mult_96_n101
*813 mult_96_n100
*814 mult_96_n99
*815 mult_96_n95
*816 mult_96_n94
*817 mult_96_n93
*818 mult_96_n79
*819 mult_96_n78
*820 mult_96_n77
*821 mult_96_n76
*822 mult_96_n75
*823 mult_96_n74
*824 mult_96_n73
*825 mult_96_n72
*826 mult_96_n71
*827 mult_96_n70
*828 mult_96_n69
*829 mult_96_n68
*830 mult_96_n67
*831 mult_96_n66
*832 mult_96_n65
*833 mult_96_n64
*834 mult_96_n63
*835 mult_96_n62
*836 mult_96_n61
*837 mult_96_n60
*838 mult_96_n59
*839 mult_96_n58
*840 mult_96_n57
*841 mult_96_n56
*842 mult_96_n55
*843 mult_96_n54
*844 mult_96_n53
*845 mult_96_n52
*846 mult_96_n51
*847 mult_96_n50
*848 mult_96_n49
*849 mult_96_n48
*850 mult_96_n46
*851 mult_96_n45
*852 mult_96_n44
*853 mult_96_n43
*854 mult_96_n42
*855 mult_96_n41
*856 mult_96_n40
*857 mult_96_n39
*858 mult_96_n38
*859 mult_96_n37
*860 mult_96_n36
*861 mult_96_n35
*862 mult_96_n34
*863 mult_96_n32
*864 mult_96_n31
*865 mult_96_n30
*866 mult_96_n29
*867 mult_96_n28
*868 mult_96_n27
*869 mult_96_n26
*870 mult_96_n25
*871 mult_96_n24
*872 mult_96_n22
*873 mult_96_n21
*874 mult_96_n20
*875 mult_96_n19
*876 mult_96_n18
*877 mult_96_n9
*878 mult_96_n8
*879 mult_96_n7
*880 mult_96_n6
*881 mult_96_n5
*882 mult_96_n4
*883 mult_96_n3
*884 mult_96_n2
*885 mult_88_n362
*886 mult_88_n361
*887 mult_88_n360
*888 mult_88_n359
*889 mult_88_n358
*890 mult_88_n357
*891 mult_88_n356
*892 mult_88_n355
*893 mult_88_n354
*894 mult_88_n353
*895 mult_88_n352
*896 mult_88_n351
*897 mult_88_n350
*898 mult_88_n349
*899 mult_88_n348
*900 mult_88_n347
*901 mult_88_n346
*902 mult_88_n345
*903 mult_88_n344
*904 mult_88_n343
*905 mult_88_n342
*906 mult_88_n341
*907 mult_88_n340
*908 mult_88_n339
*909 mult_88_n338
*910 mult_88_n337
*911 mult_88_n336
*912 mult_88_n335
*913 mult_88_n334
*914 mult_88_n333
*915 mult_88_n332
*916 mult_88_n331
*917 mult_88_n330
*918 mult_88_n329
*919 mult_88_n328
*920 mult_88_n327
*921 mult_88_n326
*922 mult_88_n325
*923 mult_88_n324
*924 mult_88_n323
*925 mult_88_n322
*926 mult_88_n321
*927 mult_88_n320
*928 mult_88_n319
*929 mult_88_n318
*930 mult_88_n317
*931 mult_88_n316
*932 mult_88_n315
*933 mult_88_n314
*934 mult_88_n313
*935 mult_88_n312
*936 mult_88_n311
*937 mult_88_n310
*938 mult_88_n309
*939 mult_88_n308
*940 mult_88_n307
*941 mult_88_n306
*942 mult_88_n305
*943 mult_88_n304
*944 mult_88_n303
*945 mult_88_n302
*946 mult_88_n301
*947 mult_88_n300
*948 mult_88_n299
*949 mult_88_n298
*950 mult_88_n297
*951 mult_88_n296
*952 mult_88_n295
*953 mult_88_n294
*954 mult_88_n293
*955 mult_88_n292
*956 mult_88_n291
*957 mult_88_n290
*958 mult_88_n289
*959 mult_88_n288
*960 mult_88_n287
*961 mult_88_n286
*962 mult_88_n285
*963 mult_88_n284
*964 mult_88_n283
*965 mult_88_n282
*966 mult_88_n281
*967 mult_88_n280
*968 mult_88_n279
*969 mult_88_n278
*970 mult_88_n277
*971 mult_88_n276
*972 mult_88_n275
*973 mult_88_n274
*974 mult_88_n273
*975 mult_88_n272
*976 mult_88_n271
*977 mult_88_n270
*978 mult_88_n269
*979 mult_88_n268
*980 mult_88_n140
*981 mult_88_n139
*982 mult_88_n138
*983 mult_88_n137
*984 mult_88_n136
*985 mult_88_n135
*986 mult_88_n132
*987 mult_88_n131
*988 mult_88_n130
*989 mult_88_n129
*990 mult_88_n128
*991 mult_88_n127
*992 mult_88_n126
*993 mult_88_n124
*994 mult_88_n123
*995 mult_88_n122
*996 mult_88_n121
*997 mult_88_n120
*998 mult_88_n119
*999 mult_88_n118
*1000 mult_88_n117
*1001 mult_88_n115
*1002 mult_88_n114
*1003 mult_88_n113
*1004 mult_88_n111
*1005 mult_88_n110
*1006 mult_88_n109
*1007 mult_88_n108
*1008 mult_88_n106
*1009 mult_88_n104
*1010 mult_88_n103
*1011 mult_88_n102
*1012 mult_88_n101
*1013 mult_88_n100
*1014 mult_88_n99
*1015 mult_88_n95
*1016 mult_88_n94
*1017 mult_88_n93
*1018 mult_88_n79
*1019 mult_88_n78
*1020 mult_88_n77
*1021 mult_88_n76
*1022 mult_88_n75
*1023 mult_88_n74
*1024 mult_88_n73
*1025 mult_88_n72
*1026 mult_88_n71
*1027 mult_88_n70
*1028 mult_88_n69
*1029 mult_88_n68
*1030 mult_88_n67
*1031 mult_88_n66
*1032 mult_88_n65
*1033 mult_88_n64
*1034 mult_88_n63
*1035 mult_88_n62
*1036 mult_88_n61
*1037 mult_88_n60
*1038 mult_88_n59
*1039 mult_88_n58
*1040 mult_88_n57
*1041 mult_88_n56
*1042 mult_88_n55
*1043 mult_88_n54
*1044 mult_88_n53
*1045 mult_88_n52
*1046 mult_88_n51
*1047 mult_88_n50
*1048 mult_88_n49
*1049 mult_88_n48
*1050 mult_88_n46
*1051 mult_88_n45
*1052 mult_88_n44
*1053 mult_88_n43
*1054 mult_88_n42
*1055 mult_88_n41
*1056 mult_88_n40
*1057 mult_88_n39
*1058 mult_88_n38
*1059 mult_88_n37
*1060 mult_88_n36
*1061 mult_88_n35
*1062 mult_88_n34
*1063 mult_88_n32
*1064 mult_88_n31
*1065 mult_88_n30
*1066 mult_88_n29
*1067 mult_88_n28
*1068 mult_88_n27
*1069 mult_88_n26
*1070 mult_88_n25
*1071 mult_88_n24
*1072 mult_88_n22
*1073 mult_88_n21
*1074 mult_88_n20
*1075 mult_88_n19
*1076 mult_88_n18
*1077 mult_88_n9
*1078 mult_88_n8
*1079 mult_88_n7
*1080 mult_88_n6
*1081 mult_88_n5
*1082 mult_88_n4
*1083 mult_88_n3
*1084 mult_88_n2
*1085 mult_81_n367
*1086 mult_81_n366
*1087 mult_81_n365
*1088 mult_81_n364
*1089 mult_81_n363
*1090 mult_81_n362
*1091 mult_81_n361
*1092 mult_81_n360
*1093 mult_81_n359
*1094 mult_81_n358
*1095 mult_81_n357
*1096 mult_81_n356
*1097 mult_81_n355
*1098 mult_81_n354
*1099 mult_81_n353
*1100 mult_81_n352
*1101 mult_81_n351
*1102 mult_81_n350
*1103 mult_81_n349
*1104 mult_81_n348
*1105 mult_81_n347
*1106 mult_81_n346
*1107 mult_81_n345
*1108 mult_81_n344
*1109 mult_81_n343
*1110 mult_81_n342
*1111 mult_81_n341
*1112 mult_81_n340
*1113 mult_81_n339
*1114 mult_81_n338
*1115 mult_81_n337
*1116 mult_81_n336
*1117 mult_81_n335
*1118 mult_81_n334
*1119 mult_81_n333
*1120 mult_81_n332
*1121 mult_81_n331
*1122 mult_81_n330
*1123 mult_81_n329
*1124 mult_81_n328
*1125 mult_81_n327
*1126 mult_81_n326
*1127 mult_81_n325
*1128 mult_81_n324
*1129 mult_81_n323
*1130 mult_81_n322
*1131 mult_81_n321
*1132 mult_81_n320
*1133 mult_81_n319
*1134 mult_81_n318
*1135 mult_81_n317
*1136 mult_81_n316
*1137 mult_81_n315
*1138 mult_81_n314
*1139 mult_81_n313
*1140 mult_81_n312
*1141 mult_81_n311
*1142 mult_81_n310
*1143 mult_81_n309
*1144 mult_81_n308
*1145 mult_81_n307
*1146 mult_81_n306
*1147 mult_81_n305
*1148 mult_81_n304
*1149 mult_81_n303
*1150 mult_81_n302
*1151 mult_81_n301
*1152 mult_81_n300
*1153 mult_81_n299
*1154 mult_81_n298
*1155 mult_81_n297
*1156 mult_81_n295
*1157 mult_81_n291
*1158 mult_81_n288
*1159 mult_81_n287
*1160 mult_81_n286
*1161 mult_81_n285
*1162 mult_81_n284
*1163 mult_81_n283
*1164 mult_81_n282
*1165 mult_81_n281
*1166 mult_81_n280
*1167 mult_81_n279
*1168 mult_81_n278
*1169 mult_81_n277
*1170 mult_81_n276
*1171 mult_81_n270
*1172 mult_81_n269
*1173 mult_81_n268
*1174 mult_81_n140
*1175 mult_81_n139
*1176 mult_81_n138
*1177 mult_81_n137
*1178 mult_81_n136
*1179 mult_81_n135
*1180 mult_81_n132
*1181 mult_81_n131
*1182 mult_81_n130
*1183 mult_81_n129
*1184 mult_81_n128
*1185 mult_81_n127
*1186 mult_81_n126
*1187 mult_81_n124
*1188 mult_81_n123
*1189 mult_81_n122
*1190 mult_81_n121
*1191 mult_81_n120
*1192 mult_81_n119
*1193 mult_81_n118
*1194 mult_81_n117
*1195 mult_81_n115
*1196 mult_81_n114
*1197 mult_81_n113
*1198 mult_81_n111
*1199 mult_81_n110
*1200 mult_81_n109
*1201 mult_81_n108
*1202 mult_81_n106
*1203 mult_81_n104
*1204 mult_81_n103
*1205 mult_81_n102
*1206 mult_81_n101
*1207 mult_81_n100
*1208 mult_81_n99
*1209 mult_81_n95
*1210 mult_81_n94
*1211 mult_81_n93
*1212 mult_81_n79
*1213 mult_81_n78
*1214 mult_81_n77
*1215 mult_81_n76
*1216 mult_81_n75
*1217 mult_81_n74
*1218 mult_81_n73
*1219 mult_81_n72
*1220 mult_81_n71
*1221 mult_81_n70
*1222 mult_81_n69
*1223 mult_81_n68
*1224 mult_81_n67
*1225 mult_81_n66
*1226 mult_81_n65
*1227 mult_81_n64
*1228 mult_81_n63
*1229 mult_81_n62
*1230 mult_81_n61
*1231 mult_81_n60
*1232 mult_81_n59
*1233 mult_81_n58
*1234 mult_81_n57
*1235 mult_81_n56
*1236 mult_81_n55
*1237 mult_81_n54
*1238 mult_81_n53
*1239 mult_81_n52
*1240 mult_81_n51
*1241 mult_81_n50
*1242 mult_81_n49
*1243 mult_81_n48
*1244 mult_81_n46
*1245 mult_81_n45
*1246 mult_81_n44
*1247 mult_81_n43
*1248 mult_81_n42
*1249 mult_81_n41
*1250 mult_81_n40
*1251 mult_81_n39
*1252 mult_81_n38
*1253 mult_81_n37
*1254 mult_81_n36
*1255 mult_81_n35
*1256 mult_81_n34
*1257 mult_81_n32
*1258 mult_81_n31
*1259 mult_81_n30
*1260 mult_81_n29
*1261 mult_81_n28
*1262 mult_81_n27
*1263 mult_81_n26
*1264 mult_81_n25
*1265 mult_81_n24
*1266 mult_81_n22
*1267 mult_81_n21
*1268 mult_81_n20
*1269 mult_81_n19
*1270 mult_81_n18
*1271 mult_81_n9
*1272 mult_81_n8
*1273 mult_81_n7
*1274 mult_81_n6
*1275 mult_81_n5
*1276 mult_81_n4
*1277 mult_81_n3
*1278 mult_81_n2
*1279 mult_71_n362
*1280 mult_71_n361
*1281 mult_71_n360
*1282 mult_71_n359
*1283 mult_71_n358
*1284 mult_71_n357
*1285 mult_71_n356
*1286 mult_71_n355
*1287 mult_71_n354
*1288 mult_71_n353
*1289 mult_71_n352
*1290 mult_71_n351
*1291 mult_71_n350
*1292 mult_71_n349
*1293 mult_71_n348
*1294 mult_71_n347
*1295 mult_71_n346
*1296 mult_71_n345
*1297 mult_71_n344
*1298 mult_71_n343
*1299 mult_71_n342
*1300 mult_71_n341
*1301 mult_71_n340
*1302 mult_71_n339
*1303 mult_71_n338
*1304 mult_71_n337
*1305 mult_71_n336
*1306 mult_71_n335
*1307 mult_71_n334
*1308 mult_71_n333
*1309 mult_71_n332
*1310 mult_71_n331
*1311 mult_71_n330
*1312 mult_71_n329
*1313 mult_71_n328
*1314 mult_71_n327
*1315 mult_71_n326
*1316 mult_71_n325
*1317 mult_71_n324
*1318 mult_71_n323
*1319 mult_71_n322
*1320 mult_71_n321
*1321 mult_71_n320
*1322 mult_71_n319
*1323 mult_71_n318
*1324 mult_71_n317
*1325 mult_71_n316
*1326 mult_71_n315
*1327 mult_71_n314
*1328 mult_71_n313
*1329 mult_71_n312
*1330 mult_71_n311
*1331 mult_71_n310
*1332 mult_71_n309
*1333 mult_71_n308
*1334 mult_71_n307
*1335 mult_71_n306
*1336 mult_71_n305
*1337 mult_71_n304
*1338 mult_71_n303
*1339 mult_71_n302
*1340 mult_71_n301
*1341 mult_71_n300
*1342 mult_71_n299
*1343 mult_71_n298
*1344 mult_71_n297
*1345 mult_71_n296
*1346 mult_71_n295
*1347 mult_71_n294
*1348 mult_71_n293
*1349 mult_71_n292
*1350 mult_71_n291
*1351 mult_71_n290
*1352 mult_71_n289
*1353 mult_71_n288
*1354 mult_71_n287
*1355 mult_71_n286
*1356 mult_71_n283
*1357 mult_71_n282
*1358 mult_71_n281
*1359 mult_71_n280
*1360 mult_71_n279
*1361 mult_71_n278
*1362 mult_71_n277
*1363 mult_71_n276
*1364 mult_71_n275
*1365 mult_71_n274
*1366 mult_71_n273
*1367 mult_71_n272
*1368 mult_71_n271
*1369 mult_71_n270
*1370 mult_71_n269
*1371 mult_71_n268
*1372 mult_71_n140
*1373 mult_71_n139
*1374 mult_71_n138
*1375 mult_71_n137
*1376 mult_71_n136
*1377 mult_71_n135
*1378 mult_71_n132
*1379 mult_71_n131
*1380 mult_71_n130
*1381 mult_71_n129
*1382 mult_71_n128
*1383 mult_71_n127
*1384 mult_71_n126
*1385 mult_71_n124
*1386 mult_71_n123
*1387 mult_71_n122
*1388 mult_71_n121
*1389 mult_71_n120
*1390 mult_71_n119
*1391 mult_71_n118
*1392 mult_71_n117
*1393 mult_71_n115
*1394 mult_71_n114
*1395 mult_71_n113
*1396 mult_71_n111
*1397 mult_71_n110
*1398 mult_71_n109
*1399 mult_71_n108
*1400 mult_71_n106
*1401 mult_71_n104
*1402 mult_71_n103
*1403 mult_71_n102
*1404 mult_71_n101
*1405 mult_71_n100
*1406 mult_71_n99
*1407 mult_71_n95
*1408 mult_71_n94
*1409 mult_71_n93
*1410 mult_71_n79
*1411 mult_71_n78
*1412 mult_71_n77
*1413 mult_71_n76
*1414 mult_71_n75
*1415 mult_71_n74
*1416 mult_71_n73
*1417 mult_71_n72
*1418 mult_71_n71
*1419 mult_71_n70
*1420 mult_71_n69
*1421 mult_71_n68
*1422 mult_71_n67
*1423 mult_71_n66
*1424 mult_71_n65
*1425 mult_71_n64
*1426 mult_71_n63
*1427 mult_71_n62
*1428 mult_71_n61
*1429 mult_71_n60
*1430 mult_71_n59
*1431 mult_71_n58
*1432 mult_71_n57
*1433 mult_71_n56
*1434 mult_71_n55
*1435 mult_71_n54
*1436 mult_71_n53
*1437 mult_71_n52
*1438 mult_71_n51
*1439 mult_71_n50
*1440 mult_71_n49
*1441 mult_71_n48
*1442 mult_71_n46
*1443 mult_71_n45
*1444 mult_71_n44
*1445 mult_71_n43
*1446 mult_71_n42
*1447 mult_71_n41
*1448 mult_71_n40
*1449 mult_71_n39
*1450 mult_71_n38
*1451 mult_71_n37
*1452 mult_71_n36
*1453 mult_71_n35
*1454 mult_71_n34
*1455 mult_71_n32
*1456 mult_71_n31
*1457 mult_71_n30
*1458 mult_71_n29
*1459 mult_71_n28
*1460 mult_71_n27
*1461 mult_71_n26
*1462 mult_71_n25
*1463 mult_71_n24
*1464 mult_71_n22
*1465 mult_71_n21
*1466 mult_71_n20
*1467 mult_71_n19
*1468 mult_71_n18
*1469 mult_71_n9
*1470 mult_71_n8
*1471 mult_71_n7
*1472 mult_71_n6
*1473 mult_71_n5
*1474 mult_71_n4
*1475 mult_71_n3
*1476 mult_71_n2
*1477 mult_83_n362
*1478 mult_83_n361
*1479 mult_83_n360
*1480 mult_83_n359
*1481 mult_83_n358
*1482 mult_83_n357
*1483 mult_83_n356
*1484 mult_83_n355
*1485 mult_83_n354
*1486 mult_83_n353
*1487 mult_83_n352
*1488 mult_83_n351
*1489 mult_83_n350
*1490 mult_83_n349
*1491 mult_83_n348
*1492 mult_83_n347
*1493 mult_83_n346
*1494 mult_83_n345
*1495 mult_83_n344
*1496 mult_83_n343
*1497 mult_83_n342
*1498 mult_83_n341
*1499 mult_83_n340
*1500 mult_83_n339
*1501 mult_83_n338
*1502 mult_83_n337
*1503 mult_83_n336
*1504 mult_83_n335
*1505 mult_83_n334
*1506 mult_83_n333
*1507 mult_83_n332
*1508 mult_83_n331
*1509 mult_83_n330
*1510 mult_83_n329
*1511 mult_83_n328
*1512 mult_83_n327
*1513 mult_83_n326
*1514 mult_83_n325
*1515 mult_83_n324
*1516 mult_83_n323
*1517 mult_83_n322
*1518 mult_83_n321
*1519 mult_83_n320
*1520 mult_83_n319
*1521 mult_83_n318
*1522 mult_83_n317
*1523 mult_83_n316
*1524 mult_83_n315
*1525 mult_83_n314
*1526 mult_83_n313
*1527 mult_83_n312
*1528 mult_83_n311
*1529 mult_83_n310
*1530 mult_83_n309
*1531 mult_83_n308
*1532 mult_83_n307
*1533 mult_83_n306
*1534 mult_83_n305
*1535 mult_83_n304
*1536 mult_83_n303
*1537 mult_83_n302
*1538 mult_83_n301
*1539 mult_83_n300
*1540 mult_83_n299
*1541 mult_83_n298
*1542 mult_83_n297
*1543 mult_83_n296
*1544 mult_83_n295
*1545 mult_83_n294
*1546 mult_83_n293
*1547 mult_83_n292
*1548 mult_83_n291
*1549 mult_83_n290
*1550 mult_83_n289
*1551 mult_83_n288
*1552 mult_83_n287
*1553 mult_83_n286
*1554 mult_83_n283
*1555 mult_83_n282
*1556 mult_83_n281
*1557 mult_83_n280
*1558 mult_83_n279
*1559 mult_83_n278
*1560 mult_83_n277
*1561 mult_83_n276
*1562 mult_83_n275
*1563 mult_83_n274
*1564 mult_83_n273
*1565 mult_83_n272
*1566 mult_83_n271
*1567 mult_83_n270
*1568 mult_83_n269
*1569 mult_83_n268
*1570 mult_83_n140
*1571 mult_83_n139
*1572 mult_83_n138
*1573 mult_83_n137
*1574 mult_83_n136
*1575 mult_83_n135
*1576 mult_83_n132
*1577 mult_83_n131
*1578 mult_83_n130
*1579 mult_83_n129
*1580 mult_83_n128
*1581 mult_83_n127
*1582 mult_83_n126
*1583 mult_83_n124
*1584 mult_83_n123
*1585 mult_83_n122
*1586 mult_83_n121
*1587 mult_83_n120
*1588 mult_83_n119
*1589 mult_83_n118
*1590 mult_83_n117
*1591 mult_83_n115
*1592 mult_83_n114
*1593 mult_83_n113
*1594 mult_83_n111
*1595 mult_83_n110
*1596 mult_83_n109
*1597 mult_83_n108
*1598 mult_83_n106
*1599 mult_83_n104
*1600 mult_83_n103
*1601 mult_83_n102
*1602 mult_83_n101
*1603 mult_83_n100
*1604 mult_83_n99
*1605 mult_83_n95
*1606 mult_83_n94
*1607 mult_83_n93
*1608 mult_83_n79
*1609 mult_83_n78
*1610 mult_83_n77
*1611 mult_83_n76
*1612 mult_83_n75
*1613 mult_83_n74
*1614 mult_83_n73
*1615 mult_83_n72
*1616 mult_83_n71
*1617 mult_83_n70
*1618 mult_83_n69
*1619 mult_83_n68
*1620 mult_83_n67
*1621 mult_83_n66
*1622 mult_83_n65
*1623 mult_83_n64
*1624 mult_83_n63
*1625 mult_83_n62
*1626 mult_83_n61
*1627 mult_83_n60
*1628 mult_83_n59
*1629 mult_83_n58
*1630 mult_83_n57
*1631 mult_83_n56
*1632 mult_83_n55
*1633 mult_83_n54
*1634 mult_83_n53
*1635 mult_83_n52
*1636 mult_83_n51
*1637 mult_83_n50
*1638 mult_83_n49
*1639 mult_83_n48
*1640 mult_83_n46
*1641 mult_83_n45
*1642 mult_83_n44
*1643 mult_83_n43
*1644 mult_83_n42
*1645 mult_83_n41
*1646 mult_83_n40
*1647 mult_83_n39
*1648 mult_83_n38
*1649 mult_83_n37
*1650 mult_83_n36
*1651 mult_83_n35
*1652 mult_83_n34
*1653 mult_83_n32
*1654 mult_83_n31
*1655 mult_83_n30
*1656 mult_83_n29
*1657 mult_83_n28
*1658 mult_83_n27
*1659 mult_83_n26
*1660 mult_83_n25
*1661 mult_83_n24
*1662 mult_83_n22
*1663 mult_83_n21
*1664 mult_83_n20
*1665 mult_83_n19
*1666 mult_83_n18
*1667 mult_83_n9
*1668 mult_83_n8
*1669 mult_83_n7
*1670 mult_83_n6
*1671 mult_83_n5
*1672 mult_83_n4
*1673 mult_83_n3
*1674 mult_83_n2
*1675 mult_73_n367
*1676 mult_73_n365
*1677 mult_73_n364
*1678 mult_73_n363
*1679 mult_73_n362
*1680 mult_73_n361
*1681 mult_73_n360
*1682 mult_73_n359
*1683 mult_73_n358
*1684 mult_73_n357
*1685 mult_73_n356
*1686 mult_73_n355
*1687 mult_73_n354
*1688 mult_73_n353
*1689 mult_73_n351
*1690 mult_73_n350
*1691 mult_73_n349
*1692 mult_73_n348
*1693 mult_73_n347
*1694 mult_73_n346
*1695 mult_73_n344
*1696 mult_73_n343
*1697 mult_73_n342
*1698 mult_73_n341
*1699 mult_73_n340
*1700 mult_73_n339
*1701 mult_73_n338
*1702 mult_73_n337
*1703 mult_73_n336
*1704 mult_73_n335
*1705 mult_73_n334
*1706 mult_73_n333
*1707 mult_73_n332
*1708 mult_73_n331
*1709 mult_73_n330
*1710 mult_73_n329
*1711 mult_73_n328
*1712 mult_73_n327
*1713 mult_73_n326
*1714 mult_73_n325
*1715 mult_73_n324
*1716 mult_73_n323
*1717 mult_73_n322
*1718 mult_73_n321
*1719 mult_73_n320
*1720 mult_73_n319
*1721 mult_73_n318
*1722 mult_73_n317
*1723 mult_73_n316
*1724 mult_73_n315
*1725 mult_73_n314
*1726 mult_73_n313
*1727 mult_73_n312
*1728 mult_73_n311
*1729 mult_73_n310
*1730 mult_73_n309
*1731 mult_73_n308
*1732 mult_73_n307
*1733 mult_73_n306
*1734 mult_73_n305
*1735 mult_73_n304
*1736 mult_73_n303
*1737 mult_73_n302
*1738 mult_73_n301
*1739 mult_73_n300
*1740 mult_73_n299
*1741 mult_73_n298
*1742 mult_73_n297
*1743 mult_73_n295
*1744 mult_73_n291
*1745 mult_73_n288
*1746 mult_73_n287
*1747 mult_73_n286
*1748 mult_73_n285
*1749 mult_73_n284
*1750 mult_73_n283
*1751 mult_73_n282
*1752 mult_73_n281
*1753 mult_73_n280
*1754 mult_73_n279
*1755 mult_73_n278
*1756 mult_73_n277
*1757 mult_73_n276
*1758 mult_73_n270
*1759 mult_73_n269
*1760 mult_73_n268
*1761 mult_73_n140
*1762 mult_73_n139
*1763 mult_73_n138
*1764 mult_73_n137
*1765 mult_73_n136
*1766 mult_73_n135
*1767 mult_73_n132
*1768 mult_73_n131
*1769 mult_73_n130
*1770 mult_73_n129
*1771 mult_73_n128
*1772 mult_73_n127
*1773 mult_73_n126
*1774 mult_73_n124
*1775 mult_73_n123